test/data/matpower/circulating_case.m
% Case saved by PowerWorld Simulator, version 23, build date August 27, 2024
function mpc = circulating_case
mpc.version = '2';
mpc.baseMVA =  100.00;

%% bus data 
mpc.bus = [
1	1	0.00	0.00	0.00	0.00	1	1.0000000	0.000000	138.00	1	1.100	0.900
3	1	0.00	0.00	0.00	0.00	1	1.0000000	0.000000	138.00	1	1.100	0.900
4	1	0.00	0.00	0.00	0.00	1	1.0000000	0.000000	345.00	1	1.100	0.900
5	1	0.00	0.00	0.00	0.00	1	1.0000000	0.000000	345.00	1	1.100	0.900
6	1	0.00	0.00	0.00	0.00	1	1.0000000	0.000000	138.00	1	1.100	0.900
7	3	0.00	0.00	0.00	0.00	1	1.0000000	0.000000	20.00	1	1.100	0.900
8	2	0.00	0.00	0.00	0.00	1	1.0000000	0.000000	20.00	1	1.100	0.900
9	2	0.00	0.00	0.00	0.00	1	1.0000000	0.000000	20.00	1	1.100	0.900
12	1	0.00	0.00	0.00	0.00	1	1.0000000	0.000000	345.00	1	1.100	0.900
13	1	0.00	0.00	0.00	0.00	1	1.0000000	0.000000	345.00	1	1.100	0.900
14	1	0.00	0.00	0.00	0.00	1	1.0000000	0.000000	138.00	1	1.100	0.900
15	2	0.00	0.00	0.00	0.00	1	1.0000000	0.000000	20.00	1	1.100	0.900
];

%% generator data 
mpc.gen = [
7	0.00	0.00	9900.00	-9900.00	1.0000	100.00	1	1000.00	0.00	0.00	0.00	0.00	0.00	0.00	0.00	0	0	0	0	10.0000
8	0.00	0.00	9900.00	-9900.00	1.0000	100.00	1	1000.00	0.00	0.00	0.00	0.00	0.00	0.00	0.00	0	0	0	0	10.0000
9	0.00	0.00	9900.00	-9900.00	1.0000	100.00	1	1000.00	0.00	0.00	0.00	0.00	0.00	0.00	0.00	0	0	0	0	10.0000
15	0.00	0.00	9900.00	-9900.00	1.0000	100.00	1	1000.00	0.00	0.00	0.00	0.00	0.00	0.00	0.00	0	0	0	0	10.0000
];

%% generator cost data
mpc.gencost = [
2	0	0	4	0	0	1	0
2	0	0	4	0	0	1	0
2	0	0	4	0	0	1	0
2	0	0	4	0	0	1	0
];

%% branch data
mpc.branch = [
1	3	0.204789	2.047889	0.00000	2000.00	0.00	0.00	0.00000	0.000	1	0.00	0.00	0.00	0.00	0.00	0.00
1	6	0.204789	2.000000	0.00000	2000.00	0.00	0.00	0.00000	0.000	1	0.00	0.00	0.00	0.00	0.00	0.00
1	7	0.003000	0.025000	0.00000	2000.00	0.00	0.00	1.00000	0.000	1	0.00	0.00	0.00	0.00	0.00	0.00
1	12	0.002500	0.030000	0.00000	2000.00	0.00	0.00	1.00000	0.000	1	0.00	0.00	0.00	0.00	0.00	0.00
3	4	0.003000	0.025000	0.00000	2000.00	0.00	0.00	1.00000	0.000	1	0.00	0.00	0.00	0.00	0.00	0.00
8	3	0.003000	0.025000	0.00000	2000.00	0.00	0.00	1.00000	0.000	1	0.00	0.00	0.00	0.00	0.00	0.00
4	5	0.204789	2.047889	0.00000	2000.00	0.00	0.00	0.00000	0.000	1	0.00	0.00	0.00	0.00	0.00	0.00
5	6	0.003000	0.025000	0.00000	2000.00	0.00	0.00	1.00000	0.000	1	0.00	0.00	0.00	0.00	0.00	0.00
6	9	0.003000	0.025000	0.00000	2000.00	0.00	0.00	1.00000	0.000	1	0.00	0.00	0.00	0.00	0.00	0.00
14	6	0.204789	2.047889	0.00000	2000.00	0.00	0.00	0.00000	0.000	1	0.00	0.00	0.00	0.00	0.00	0.00
12	13	0.204789	2.047889	0.00000	2000.00	0.00	0.00	0.00000	0.000	1	0.00	0.00	0.00	0.00	0.00	0.00
13	14	0.002500	0.030000	0.00000	2000.00	0.00	0.00	1.00000	0.000	1	0.00	0.00	0.00	0.00	0.00	0.00
14	15	0.002500	0.030000	0.00000	2000.00	0.00	0.00	1.00000	0.000	1	0.00	0.00	0.00	0.00	0.00	0.00
];

%% bus names
mpc.bus_name = {
'1';
'3';
'4';
'5';
'6';
'7';
'8';
'9';
'12';
'13';
'14';
'15';
};

%% Generator Unit Types
mpc.gentype = {
'UN';
'UN';
'UN';
'UN';
};

%% Generator Fuel Types
mpc.genfuel = {
'unknown';
'unknown';
'unknown';
'unknown';
};

%% gmd_bus data
%column_names% parent_index status g_gnd sub name
mpc.gmd_bus = {
-1	1	1.5625000244		-1	'dc sub 1'
-1	1	1.5625000244		-1	'dc sub 2'
-1	1	1.5625000244		-1	'dc sub 3'
-1	1	1.5625000244		-1	'dc sub 4'
1	1	0.0000000000		1	'dc bus 1'
3	1	0.0000000000		2	'dc bus 3'
4	1	0.0000000000		2	'dc bus 4'
5	1	0.0000000000		3	'dc bus 5'
6	1	0.0000000000		3	'dc bus 6'
7	1	0.0000000000		1	'dc bus 7'
8	1	0.0000000000		2	'dc bus 8'
9	1	0.0000000000		3	'dc bus 9'
12	1	0.0000000000		1	'dc bus 12'
13	1	0.0000000000		4	'dc bus 13'
14	1	0.0000000000		4	'dc bus 14'
15	1	0.0000000000		4	'dc bus 15'
};

%% gmd_branch data
%column_names% f_bus t_bus parent_type parent_index br_status br_r br_v len_km name
mpc.gmd_branch = {
5	6	'branch'	1	1	13.0000058100		-596.7855224600		2837.6276856300		'dc 1'
	% line 1-3
5	9	'branch'	2	1	13.0000058100		-2212.2968750000		2767.3670222600		'dc 2'
	% line 1-6
5	1	'branch'	3	1	0.0952200033		0.0000000000		0.0000000000		'dc 3_hi'
	% transformer 1-7
7	8	'branch'	7	1	81.2500368133		-467.9039001500		3473.4318352100		'dc 7'
	% line 4-5
8	9	'branch'	8	1	0.5951250267		0.0000000000		0.0000000000		'dc 8_series'
	% transformer 5-6
9	3	'branch'	8	1	0.2645000000		0.0000000000		0.0000000000		'dc 8_common'
	% 5-6
9	3	'branch'	9	1	0.0952200033		0.0000000000		0.0000000000		'dc 9_hi'
	% transformer 6-9
15	9	'branch'	10	1	13.0000058100		2377.9077148400		2381.7747179500		'dc 10'
	% line 14-6
13	14	'branch'	11	1	81.2500368133		-4852.6391601600		5401.8549900900		'dc 11'
	% line 12-13
14	4	'branch'	12	1	0.4959374867		0.0000000000		0.0000000000		'dc 12_hi'
	% transformer 13-14
15	4	'branch'	12	1	0.0793499967		0.0000000000		0.0000000000		'dc 12_lo'	% 13-14
15	4	'branch'	13	1	0.0793499967		0.0000000000		0.0000000000		'dc 13_hi'
	% transformer 14-15
6	2	'branch'	6	1	0.0952200033		0.0000000000		0.0000000000		'dc 6_hi'
	% transformer 3-8
7	6	'branch'	5	1	0.5951250267		0.0000000000		0.0000000000		'dc 5_series'
	% transformer 4-3
6	2	'branch'	5	1	0.2645000000		0.0000000000		0.0000000000		'dc 5_common'
	% 4-3
13	5	'branch'	4	1	0.4959374867		0.0000000000		0.0000000000		'dc 4_series'
	% transformer 12-1
5	1	'branch'	4	1	0.2204166733		0.0000000000		0.0000000000		'dc 4_common'
	% 12-1
5	1	'bus'	1	1	25000.0000000000		0.0000000000		0.0000000000		'dc bus_5'
6	2	'bus'	3	1	25000.0000000000		0.0000000000		0.0000000000		'dc bus_6'
7	2	'bus'	4	1	25000.0000000000		0.0000000000		0.0000000000		'dc bus_7'
8	3	'bus'	5	1	25000.0000000000		0.0000000000		0.0000000000		'dc bus_8'
9	3	'bus'	6	1	25000.0000000000		0.0000000000		0.0000000000		'dc bus_9'
10	1	'bus'	7	1	25000.0000000000		0.0000000000		0.0000000000		'dc bus_10'
11	2	'bus'	8	1	25000.0000000000		0.0000000000		0.0000000000		'dc bus_11'
12	3	'bus'	9	1	25000.0000000000		0.0000000000		0.0000000000		'dc bus_12'
13	1	'bus'	12	1	25000.0000000000		0.0000000000		0.0000000000		'dc bus_13'
14	4	'bus'	13	1	25000.0000000000		0.0000000000		0.0000000000		'dc bus_14'
15	4	'bus'	14	1	25000.0000000000		0.0000000000		0.0000000000		'dc bus_15'
16	4	'bus'	15	1	25000.0000000000		0.0000000000		0.0000000000		'dc bus_16'
};

%% branch_gmd data
%column_names% hi_bus lo_bus gmd_br_hi gmd_br_lo gmd_k gmd_br_series gmd_br_common baseMVA type config
mpc.branch_gmd = {
1	3	-1	-1	-1.0000000000		-1		-1		100.0	'line'	'none'
1	6	-1	-1	-1.0000000000		-1		-1		100.0	'line'	'none'
1	7	3	-1	1.5000000000		-1		-1		100.0	'xfmr'	'gwye-delta'
12	1	-1	-1	1.5000000000		16		17		100.0	'xfmr'	'gwye-gwye-auto'
4	3	-1	-1	1.5000000000		14		15		100.0	'xfmr'	'gwye-gwye-auto'
3	8	13	-1	1.5000000000		-1		-1		100.0	'xfmr'	'gwye-delta'
4	5	-1	-1	-1.0000000000		-1		-1		100.0	'line'	'none'
5	6	-1	-1	1.5000000000		5		6		100.0	'xfmr'	'gwye-gwye-auto'
6	9	7	-1	1.5000000000		-1		-1		100.0	'xfmr'	'gwye-delta'
14	6	-1	-1	-1.0000000000		-1		-1		100.0	'line'	'none'
12	13	-1	-1	-1.0000000000		-1		-1		100.0	'line'	'none'
13	14	10	11	1.5000000000		-1		-1		100.0	'xfmr'	'gwye-gwye'
14	15	12	-1	1.5000000000		-1		-1		100.0	'xfmr'	'gwye-delta'
};

%% bus_gmd data
%column_names% lat lon
mpc.bus_gmd = {
46.8131000000		-71.2075000000		
29.7601000000		-95.3701000000		
29.7601000000		-95.3701000000		
60.0000000000		-106.4850000000		
60.0000000000		-106.4850000000		
46.8131000000		-71.2075000000		
29.7601000000		-95.3701000000		
60.0000000000		-106.4850000000		
46.8131000000		-71.2075000000		
61.2176000000		-149.8997000000		
61.2176000000		-149.8997000000		
61.2176000000		-149.8997000000		
};

%% branch_thermal data
%column_names% xfmr temperature_ambient hotspot_instant_limit hotspot_avg_limit hotspot_rated topoil_time_const topoil_rated topoil_init topoil_initialized hotspot_coeff
mpc.branch_thermal = {
0	-1	-1	-1	-1	-1	-1	-1	-1	-1
0	-1	-1	-1	-1	-1	-1	-1	-1	-1
1	25	280	240	150	71	75	0	1	0.63
1	25	280	240	150	71	75	0	1	0.63
1	25	280	240	150	71	75	0	1	0.63
1	25	280	240	150	71	75	0	1	0.63
0	-1	-1	-1	-1	-1	-1	-1	-1	-1
1	25	280	240	150	71	75	0	1	0.63
1	25	280	240	150	71	75	0	1	0.63
0	-1	-1	-1	-1	-1	-1	-1	-1	-1
0	-1	-1	-1	-1	-1	-1	-1	-1	-1
1	25	280	240	150	71	75	0	1	0.63
1	25	280	240	150	71	75	0	1	0.63
};
